Lipidic_Droplet (Step 1)
 OpenBabel06282620173D

127126  0  0  1  0  0  0  0  0999 V2000
    4.7601    2.0260   -6.6943 N   0  0  0  0  0  4  0  0  0  0  0  0
    5.6298    1.6467   -5.5122 C   0  0  1  0  0  0  0  0  0  0  0  0
    4.8890    1.8378   -4.1864 C   0  0  0  0  0  0  0  0  0  0  0  0
    4.4905    3.1863   -3.9213 O   0  0  0  0  0  0  0  0  0  0  0  0
    3.6012    3.9347   -5.0482 P   0  0  1  0  0  0  0  0  0  0  0  0
    2.8892    5.0834   -4.1808 O   0  0  0  0  0  0  0  0  0  0  0  0
    1.8697    4.6596   -3.2856 C   0  0  0  0  0  0  0  0  0  0  0  0
    2.1289    5.2395   -1.8952 C   0  0  2  0  0  0  0  0  0  0  0  0
    3.3704    4.6730   -1.4115 O   0  0  0  0  0  0  0  0  0  0  0  0
    4.0201    5.3653   -0.4444 C   0  0  0  0  0  0  0  0  0  0  0  0
    3.6259    6.4043    0.0706 O   0  0  0  0  0  0  0  0  0  0  0  0
    5.2949    4.6542   -0.0569 C   0  0  0  0  0  0  0  0  0  0  0  0
    5.3600    4.4229    1.4539 C   0  0  0  0  0  0  0  0  0  0  0  0
    4.3399    3.3756    1.9163 C   0  0  0  0  0  0  0  0  0  0  0  0
    4.2822    3.2944    3.4430 C   0  0  0  0  0  0  0  0  0  0  0  0
    3.1520    2.3961    3.9470 C   0  0  0  0  0  0  0  0  0  0  0  0
    1.8567    3.1335    4.3096 C   0  0  0  0  0  0  0  0  0  0  0  0
    1.1987    3.8649    3.1405 C   0  0  0  0  0  0  0  0  0  0  0  0
   -0.1171    4.5536    3.5015 C   0  0  0  0  0  0  0  0  0  0  0  0
   -1.2613    3.5804    3.7980 C   0  0  0  0  0  0  0  0  0  0  0  0
   -2.5762    4.3330    4.0151 C   0  0  0  0  0  0  0  0  0  0  0  0
   -3.7458    3.4344    4.4301 C   0  0  0  0  0  0  0  0  0  0  0  0
   -4.1440    2.4133    3.3610 C   0  0  0  0  0  0  0  0  0  0  0  0
   -5.4464    1.7021    3.7373 C   0  0  0  0  0  0  0  0  0  0  0  0
   -5.9169    0.7146    2.6727 C   0  0  0  0  0  0  0  0  0  0  0  0
   -5.0384   -0.5202    2.5615 C   0  0  0  0  0  0  0  0  0  0  0  0
    0.9982    4.9043   -0.9118 C   0  0  0  0  0  0  0  0  0  0  0  0
    0.8922    3.4805   -0.7089 O   0  0  0  0  0  0  0  0  0  0  0  0
   -0.0729    2.8296   -1.4186 C   0  0  0  0  0  0  0  0  0  0  0  0
   -0.9332    3.3798   -2.0895 O   0  0  0  0  0  0  0  0  0  0  0  0
    0.1006    1.3369   -1.2402 C   0  0  0  0  0  0  0  0  0  0  0  0
   -0.6366    0.4995   -2.2837 C   0  0  0  0  0  0  0  0  0  0  0  0
   -2.1652    0.4649   -2.1556 C   0  0  0  0  0  0  0  0  0  0  0  0
   -2.7119    0.0325   -0.7932 C   0  0  0  0  0  0  0  0  0  0  0  0
   -2.2650   -1.3533   -0.3096 C   0  0  0  0  0  0  0  0  0  0  0  0
   -2.7239   -2.4965   -1.2180 C   0  0  0  0  0  0  0  0  0  0  0  0
   -2.4597   -3.8539   -0.5675 C   0  0  0  0  0  0  0  0  0  0  0  0
   -2.9482   -4.9831   -1.4282 C   0  0  0  0  0  0  0  0  0  0  0  0
   -2.2276   -6.0168   -1.8953 C   0  0  0  0  0  0  0  0  0  0  0  0
   -0.7599   -6.2590   -1.6894 C   0  0  0  0  0  0  0  0  0  0  0  0
   -0.4274   -6.9975   -0.3884 C   0  0  0  0  0  0  0  0  0  0  0  0
   -0.4911   -8.5282   -0.4690 C   0  0  0  0  0  0  0  0  0  0  0  0
   -1.8761   -9.1478   -0.6621 C   0  0  0  0  0  0  0  0  0  0  0  0
   -2.9156   -8.8549    0.4296 C   0  0  0  0  0  0  0  0  0  0  0  0
   -2.5879   -9.4850    1.7939 C   0  0  0  0  0  0  0  0  0  0  0  0
   -1.9226   -8.5474    2.8011 C   0  0  0  0  0  0  0  0  0  0  0  0
   -2.8506   -7.4593    3.3152 C   0  0  0  0  0  0  0  0  0  0  0  0
    4.5691    4.4930   -6.0645 O   0  0  0  0  0  0  0  0  0  0  0  0
    2.6098    2.9176   -5.5707 O   0  0  0  0  0  1  0  0  0  0  0  0
    6.1475    0.1919   -5.6529 C   0  0  0  0  0  0  0  0  0  0  0  0
    5.9792   -0.2559   -6.8353 O   0  0  0  0  0  0  0  0  0  0  0  0
    6.6580   -0.3515   -4.6430 O   0  0  0  0  0  1  0  0  0  0  0  0
    4.9077    3.0306   -6.9259 H   0  0  0  0  0  0  0  0  0  0  0  0
    4.9928    1.3818   -7.4544 H   0  0  0  0  0  0  0  0  0  0  0  0
    3.7452    1.9532   -6.4679 H   0  0  0  0  0  0  0  0  0  0  0  0
    6.4885    2.3210   -5.5720 H   0  0  0  0  0  0  0  0  0  0  0  0
    5.5415    1.5536   -3.3538 H   0  0  0  0  0  0  0  0  0  0  0  0
    4.0072    1.1943   -4.1257 H   0  0  0  0  0  0  0  0  0  0  0  0
    1.8399    3.5675   -3.2381 H   0  0  0  0  0  0  0  0  0  0  0  0
    0.9091    5.0100   -3.6778 H   0  0  0  0  0  0  0  0  0  0  0  0
    2.2438    6.3273   -1.9874 H   0  0  0  0  0  0  0  0  0  0  0  0
    5.3697    3.6996   -0.5894 H   0  0  0  0  0  0  0  0  0  0  0  0
    6.1330    5.2775   -0.3861 H   0  0  0  0  0  0  0  0  0  0  0  0
    5.1834    5.3709    1.9793 H   0  0  0  0  0  0  0  0  0  0  0  0
    6.3655    4.0842    1.7203 H   0  0  0  0  0  0  0  0  0  0  0  0
    4.6108    2.3960    1.5097 H   0  0  0  0  0  0  0  0  0  0  0  0
    3.3547    3.6180    1.5119 H   0  0  0  0  0  0  0  0  0  0  0  0
    5.2370    2.8869    3.7974 H   0  0  0  0  0  0  0  0  0  0  0  0
    4.1918    4.2936    3.8833 H   0  0  0  0  0  0  0  0  0  0  0  0
    3.4960    1.8945    4.8608 H   0  0  0  0  0  0  0  0  0  0  0  0
    2.9378    1.6028    3.2226 H   0  0  0  0  0  0  0  0  0  0  0  0
    2.0602    3.8534    5.1114 H   0  0  0  0  0  0  0  0  0  0  0  0
    1.1573    2.4043    4.7211 H   0  0  0  0  0  0  0  0  0  0  0  0
    1.0365    3.1785    2.3031 H   0  0  0  0  0  0  0  0  0  0  0  0
    1.8739    4.6538    2.7849 H   0  0  0  0  0  0  0  0  0  0  0  0
   -0.4147    5.1910    2.6601 H   0  0  0  0  0  0  0  0  0  0  0  0
    0.0368    5.2228    4.3598 H   0  0  0  0  0  0  0  0  0  0  0  0
   -1.3664    2.8813    2.9635 H   0  0  0  0  0  0  0  0  0  0  0  0
   -1.0335    2.9903    4.6938 H   0  0  0  0  0  0  0  0  0  0  0  0
   -2.8409    4.8775    3.0998 H   0  0  0  0  0  0  0  0  0  0  0  0
   -2.4332    5.0929    4.7967 H   0  0  0  0  0  0  0  0  0  0  0  0
   -4.6028    4.0830    4.6522 H   0  0  0  0  0  0  0  0  0  0  0  0
   -3.4923    2.9159    5.3625 H   0  0  0  0  0  0  0  0  0  0  0  0
   -4.2664    2.9191    2.3975 H   0  0  0  0  0  0  0  0  0  0  0  0
   -3.3373    1.6802    3.2469 H   0  0  0  0  0  0  0  0  0  0  0  0
   -5.3227    1.1871    4.6976 H   0  0  0  0  0  0  0  0  0  0  0  0
   -6.2308    2.4541    3.8808 H   0  0  0  0  0  0  0  0  0  0  0  0
   -6.9328    0.3962    2.9180 H   0  0  0  0  0  0  0  0  0  0  0  0
   -5.9770    1.2144    1.6981 H   0  0  0  0  0  0  0  0  0  0  0  0
   -4.9784   -1.0456    3.5138 H   0  0  0  0  0  0  0  0  0  0  0  0
   -5.4473   -1.2098    1.8155 H   0  0  0  0  0  0  0  0  0  0  0  0
   -4.0257   -0.2605    2.2414 H   0  0  0  0  0  0  0  0  0  0  0  0
    1.2195    5.3267    0.0747 H   0  0  0  0  0  0  0  0  0  0  0  0
    0.0517    5.3460   -1.2424 H   0  0  0  0  0  0  0  0  0  0  0  0
   -0.1871    1.0662   -0.2220 H   0  0  0  0  0  0  0  0  0  0  0  0
    1.1709    1.1194   -1.3457 H   0  0  0  0  0  0  0  0  0  0  0  0
   -0.2647   -0.5289   -2.2270 H   0  0  0  0  0  0  0  0  0  0  0  0
   -0.3831    0.8619   -3.2881 H   0  0  0  0  0  0  0  0  0  0  0  0
   -2.5670    1.4550   -2.3800 H   0  0  0  0  0  0  0  0  0  0  0  0
   -2.5658   -0.1986   -2.9308 H   0  0  0  0  0  0  0  0  0  0  0  0
   -2.4339    0.7714   -0.0357 H   0  0  0  0  0  0  0  0  0  0  0  0
   -3.8052    0.0505   -0.8395 H   0  0  0  0  0  0  0  0  0  0  0  0
   -1.1791   -1.3833   -0.2002 H   0  0  0  0  0  0  0  0  0  0  0  0
   -2.6774   -1.5074    0.6908 H   0  0  0  0  0  0  0  0  0  0  0  0
   -3.7936   -2.3892   -1.4308 H   0  0  0  0  0  0  0  0  0  0  0  0
   -2.2008   -2.4424   -2.1802 H   0  0  0  0  0  0  0  0  0  0  0  0
   -2.9933   -3.9103    0.3892 H   0  0  0  0  0  0  0  0  0  0  0  0
   -1.3958   -3.9468   -0.3293 H   0  0  0  0  0  0  0  0  0  0  0  0
   -4.0068   -4.9569   -1.6770 H   0  0  0  0  0  0  0  0  0  0  0  0
   -2.7435   -6.7531   -2.5089 H   0  0  0  0  0  0  0  0  0  0  0  0
   -0.2338   -5.2939   -1.6922 H   0  0  0  0  0  0  0  0  0  0  0  0
   -0.3647   -6.8064   -2.5538 H   0  0  0  0  0  0  0  0  0  0  0  0
    0.6121   -6.7437   -0.1308 H   0  0  0  0  0  0  0  0  0  0  0  0
   -1.0385   -6.6243    0.4442 H   0  0  0  0  0  0  0  0  0  0  0  0
   -0.0352   -8.9462    0.4373 H   0  0  0  0  0  0  0  0  0  0  0  0
    0.1465   -8.8594   -1.3003 H   0  0  0  0  0  0  0  0  0  0  0  0
   -1.7533  -10.2352   -0.7444 H   0  0  0  0  0  0  0  0  0  0  0  0
   -2.2844   -8.8310   -1.6276 H   0  0  0  0  0  0  0  0  0  0  0  0
   -3.0947   -7.7808    0.5170 H   0  0  0  0  0  0  0  0  0  0  0  0
   -3.8583   -9.2951    0.0877 H   0  0  0  0  0  0  0  0  0  0  0  0
   -3.5180   -9.8557    2.2365 H   0  0  0  0  0  0  0  0  0  0  0  0
   -1.9529  -10.3670    1.6500 H   0  0  0  0  0  0  0  0  0  0  0  0
   -1.0224   -8.0923    2.3761 H   0  0  0  0  0  0  0  0  0  0  0  0
   -1.5927   -9.1479    3.6583 H   0  0  0  0  0  0  0  0  0  0  0  0
   -3.7554   -7.8894    3.7546 H   0  0  0  0  0  0  0  0  0  0  0  0
   -2.3469   -6.8744    4.0934 H   0  0  0  0  0  0  0  0  0  0  0  0
   -3.1447   -6.7658    2.5228 H   0  0  0  0  0  0  0  0  0  0  0  0
  1 55  1  0  0  0  0
  1  2  1  0  0  0  0
  2 56  1  1  0  0  0
  2  3  1  0  0  0  0
  3 58  1  0  0  0  0
  3  4  1  0  0  0  0
  3 57  1  0  0  0  0
  5 48  2  6  0  0  0
  5  6  1  0  0  0  0
  5  4  1  0  0  0  0
  6  7  1  0  0  0  0
  7 59  1  0  0  0  0
  7  8  1  0  0  0  0
  8 61  1  6  0  0  0
  8  9  1  0  0  0  0
  8 27  1  0  0  0  0
  9 10  1  0  0  0  0
 10 12  1  0  0  0  0
 10 11  2  0  0  0  0
 12 13  1  0  0  0  0
 13 65  1  0  0  0  0
 13 14  1  0  0  0  0
 13 64  1  0  0  0  0
 14 15  1  0  0  0  0
 15 68  1  0  0  0  0
 15 69  1  0  0  0  0
 15 16  1  0  0  0  0
 16 17  1  0  0  0  0
 16 70  1  0  0  0  0
 17 73  1  0  0  0  0
 17 72  1  0  0  0  0
 18 19  1  0  0  0  0
 18 17  1  0  0  0  0
 19 20  1  0  0  0  0
 19 77  1  0  0  0  0
 20 21  1  0  0  0  0
 20 79  1  0  0  0  0
 21 22  1  0  0  0  0
 21 81  1  0  0  0  0
 22 82  1  0  0  0  0
 22 83  1  0  0  0  0
 23 24  1  0  0  0  0
 23 22  1  0  0  0  0
 24 87  1  0  0  0  0
 24 86  1  0  0  0  0
 25 88  1  0  0  0  0
 25 24  1  0  0  0  0
 26 25  1  0  0  0  0
 26 90  1  0  0  0  0
 27 28  1  0  0  0  0
 27 93  1  0  0  0  0
 29 31  1  0  0  0  0
 29 28  1  0  0  0  0
 30 29  2  0  0  0  0
 31 95  1  0  0  0  0
 32 97  1  0  0  0  0
 32 33  1  0  0  0  0
 32 31  1  0  0  0  0
 33 34  1  0  0  0  0
 34 35  1  0  0  0  0
 34101  1  0  0  0  0
 35103  1  0  0  0  0
 35104  1  0  0  0  0
 36 37  1  0  0  0  0
 36 35  1  0  0  0  0
 37108  1  0  0  0  0
 37107  1  0  0  0  0
 38 37  1  0  0  0  0
 39 40  1  0  0  0  0
 39 38  2  0  0  0  0
 40 41  1  0  0  0  0
 41113  1  0  0  0  0
 41114  1  0  0  0  0
 42 41  1  0  0  0  0
 42115  1  0  0  0  0
 43 42  1  0  0  0  0
 43 44  1  0  0  0  0
 44119  1  0  0  0  0
 44 45  1  0  0  0  0
 45121  1  0  0  0  0
 45 46  1  0  0  0  0
 46 47  1  0  0  0  0
 46124  1  0  0  0  0
 47125  1  0  0  0  0
 47126  1  0  0  0  0
 49  5  1  0  0  0  0
 50  2  1  0  0  0  0
 50 52  1  0  0  0  0
 51 50  2  0  0  0  0
 53  1  1  0  0  0  0
 54  1  1  0  0  0  0
 60  7  1  0  0  0  0
 62 12  1  0  0  0  0
 63 12  1  0  0  0  0
 66 14  1  0  0  0  0
 67 14  1  0  0  0  0
 71 16  1  0  0  0  0
 74 18  1  0  0  0  0
 75 18  1  0  0  0  0
 76 19  1  0  0  0  0
 78 20  1  0  0  0  0
 80 21  1  0  0  0  0
 84 23  1  0  0  0  0
 85 23  1  0  0  0  0
 89 25  1  0  0  0  0
 91 26  1  0  0  0  0
 92 26  1  0  0  0  0
 94 27  1  0  0  0  0
 96 31  1  0  0  0  0
 98 32  1  0  0  0  0
 99 33  1  0  0  0  0
100 33  1  0  0  0  0
102 34  1  0  0  0  0
105 36  1  0  0  0  0
106 36  1  0  0  0  0
109 38  1  0  0  0  0
110 39  1  0  0  0  0
111 40  1  0  0  0  0
112 40  1  0  0  0  0
116 42  1  0  0  0  0
117 43  1  0  0  0  0
118 43  1  0  0  0  0
120 44  1  0  0  0  0
122 45  1  0  0  0  0
123 46  1  0  0  0  0
127 47  1  0  0  0  0
M  END
>  <name>
Lipidic_Droplet (Step 1)

>  <charge>
-1

>  <multiplicity>
1

>  <method>
OMol25's eSEN Sm. Cons.

>  <engine>
fairchem 2

>  <generated_by>
Rowan

>  <timestamp>
2026-06-28 20:17:31

$$$$
