autogenerated by Rowan at 2026-06-27 23:28:00.324813+00:00
 OpenBabel06272623283D

 97 98  0  0  0  0  0  0  0  0999 V2000
  -16.3534   -0.2758   -1.9007 C   0  0  0  0  0  0  0  0  0  0  0  0
  -15.8728   -0.7599   -0.5424 C   0  0  0  0  0  0  0  0  0  0  0  0
  -14.9610    0.2151    0.0713 N   0  0  0  0  0  0  0  0  0  0  0  0
  -15.5827    1.1704    0.9967 C   0  0  0  0  0  0  0  0  0  0  0  0
  -15.6093    0.6162    2.4140 C   0  0  0  0  0  0  0  0  0  0  0  0
  -13.5868    0.1901   -0.1554 C   0  0  0  0  0  0  0  0  0  0  0  0
  -13.0041   -0.6560   -1.1217 C   0  0  0  0  0  0  0  0  0  0  0  0
  -11.6204   -0.6971   -1.3646 C   0  0  0  0  0  0  0  0  0  0  0  0
  -10.7627    0.1184   -0.6393 C   0  0  0  0  0  0  0  0  0  0  0  0
   -9.3234    0.0972   -0.8117 C   0  0  0  0  0  0  0  0  0  0  0  0
   -8.5408    0.8990   -0.0694 C   0  0  0  0  0  0  0  0  0  0  0  0
   -7.0873    0.7377   -0.2593 C   0  0  0  0  0  0  0  0  0  0  0  0
   -6.5716    0.4601   -1.3339 O   0  0  0  0  0  0  0  0  0  0  0  0
   -6.4367    0.8010    0.9276 O   0  0  0  0  0  0  0  0  0  0  0  0
   -5.0370    0.4776    0.8672 C   0  0  0  0  0  0  0  0  0  0  0  0
   -4.8539   -1.0408    0.8936 C   0  0  0  0  0  0  0  0  0  0  0  0
   -3.5001   -1.4288    0.6855 O   0  0  0  0  0  0  0  0  0  0  0  0
   -3.1559   -1.5055   -0.7048 C   0  0  0  0  0  0  0  0  0  0  0  0
   -1.7154   -2.0051   -0.8376 C   0  0  0  0  0  0  0  0  0  0  0  0
   -0.8046   -0.9334   -0.5720 O   0  0  0  0  0  0  0  0  0  0  0  0
    0.5190   -1.3798   -0.2780 C   0  0  0  0  0  0  0  0  0  0  0  0
    1.2400   -1.9596   -1.4964 C   0  0  0  0  0  0  0  0  0  0  0  0
    2.5833   -2.3196   -1.1701 O   0  0  0  0  0  0  0  0  0  0  0  0
    3.4960   -1.2303   -1.3218 C   0  0  0  0  0  0  0  0  0  0  0  0
    4.7687   -1.5318   -0.5350 C   0  0  0  0  0  0  0  0  0  0  0  0
    5.6943   -0.4495   -0.6352 O   0  0  0  0  0  0  0  0  0  0  0  0
    6.6754   -0.6653   -1.6480 C   0  0  0  0  0  0  0  0  0  0  0  0
    7.5080    0.6011   -1.8262 C   0  0  0  0  0  0  0  0  0  0  0  0
    8.5878    0.3662   -2.7294 O   0  0  0  0  0  0  0  0  0  0  0  0
    9.8136    0.0211   -2.0751 C   0  0  0  0  0  0  0  0  0  0  0  0
   10.6418    1.2697   -1.7468 C   0  0  0  0  0  0  0  0  0  0  0  0
   10.1734    2.0215   -0.6250 O   0  0  0  0  0  0  0  0  0  0  0  0
   10.3131    1.4021    0.6578 C   0  0  0  0  0  0  0  0  0  0  0  0
   11.7684    1.1513    1.0644 C   0  0  0  0  0  0  0  0  0  0  0  0
   12.2044   -0.0956    0.5127 O   0  0  0  0  0  0  0  0  0  0  0  0
   13.6211   -0.2592    0.5440 C   0  0  0  0  0  0  0  0  0  0  0  0
   14.1601   -0.5833    1.9389 C   0  0  0  0  0  0  0  0  0  0  0  0
   15.5582   -0.8666    1.9066 O   0  0  0  0  0  0  0  0  0  0  0  0
   16.3885    0.3023    1.9194 C   0  0  0  0  0  0  0  0  0  0  0  0
   16.7542    0.6539    3.3607 C   0  0  0  0  0  0  0  0  0  0  0  0
   17.4462   -0.4352    3.9687 O   0  0  0  0  0  0  0  0  0  0  0  0
   -9.1076    1.8627    0.8907 C   0  0  0  0  0  0  0  0  0  0  0  0
   -8.4231    2.6761    1.4985 O   0  0  0  0  0  0  0  0  0  0  0  0
  -10.4895    1.8196    1.0676 O   0  0  0  0  0  0  0  0  0  0  0  0
  -11.3119    0.9636    0.3085 C   0  0  0  0  0  0  0  0  0  0  0  0
  -12.6888    1.0075    0.5546 C   0  0  0  0  0  0  0  0  0  0  0  0
  -15.5217   -0.1290   -2.5958 H   0  0  0  0  0  0  0  0  0  0  0  0
  -16.8796    0.6779   -1.8095 H   0  0  0  0  0  0  0  0  0  0  0  0
  -17.0389   -1.0053   -2.3414 H   0  0  0  0  0  0  0  0  0  0  0  0
  -15.4169   -1.7526   -0.6167 H   0  0  0  0  0  0  0  0  0  0  0  0
  -16.7473   -0.9096    0.1054 H   0  0  0  0  0  0  0  0  0  0  0  0
  -16.6164    1.3732    0.6798 H   0  0  0  0  0  0  0  0  0  0  0  0
  -15.0834    2.1461    0.9715 H   0  0  0  0  0  0  0  0  0  0  0  0
  -14.6030    0.3967    2.7843 H   0  0  0  0  0  0  0  0  0  0  0  0
  -16.0744    1.3374    3.0947 H   0  0  0  0  0  0  0  0  0  0  0  0
  -16.1880   -0.3121    2.4608 H   0  0  0  0  0  0  0  0  0  0  0  0
  -13.6178   -1.3171   -1.7302 H   0  0  0  0  0  0  0  0  0  0  0  0
  -11.2417   -1.3738   -2.1256 H   0  0  0  0  0  0  0  0  0  0  0  0
   -8.9083   -0.6077   -1.5253 H   0  0  0  0  0  0  0  0  0  0  0  0
   -4.5499    0.9187    1.7443 H   0  0  0  0  0  0  0  0  0  0  0  0
   -4.5619    0.9488    0.0022 H   0  0  0  0  0  0  0  0  0  0  0  0
   -5.5173   -1.5475    0.1833 H   0  0  0  0  0  0  0  0  0  0  0  0
   -5.1509   -1.4030    1.8826 H   0  0  0  0  0  0  0  0  0  0  0  0
   -3.8262   -2.2186   -1.1993 H   0  0  0  0  0  0  0  0  0  0  0  0
   -3.2595   -0.5196   -1.1688 H   0  0  0  0  0  0  0  0  0  0  0  0
   -1.5462   -2.8255   -0.1319 H   0  0  0  0  0  0  0  0  0  0  0  0
   -1.5459   -2.3493   -1.8631 H   0  0  0  0  0  0  0  0  0  0  0  0
    1.0685   -0.5129    0.1007 H   0  0  0  0  0  0  0  0  0  0  0  0
    0.5050   -2.1029    0.5479 H   0  0  0  0  0  0  0  0  0  0  0  0
    1.2084   -1.2721   -2.3502 H   0  0  0  0  0  0  0  0  0  0  0  0
    0.7331   -2.8770   -1.8181 H   0  0  0  0  0  0  0  0  0  0  0  0
    3.7203   -1.0953   -2.3876 H   0  0  0  0  0  0  0  0  0  0  0  0
    3.0629   -0.2908   -0.9581 H   0  0  0  0  0  0  0  0  0  0  0  0
    5.2129   -2.4849   -0.8454 H   0  0  0  0  0  0  0  0  0  0  0  0
    4.5085   -1.6435    0.5247 H   0  0  0  0  0  0  0  0  0  0  0  0
    6.2000   -0.9305   -2.6000 H   0  0  0  0  0  0  0  0  0  0  0  0
    7.3215   -1.5035   -1.3550 H   0  0  0  0  0  0  0  0  0  0  0  0
    6.8781    1.3841   -2.2603 H   0  0  0  0  0  0  0  0  0  0  0  0
    7.8433    0.9832   -0.8581 H   0  0  0  0  0  0  0  0  0  0  0  0
   10.3778   -0.5759   -2.7975 H   0  0  0  0  0  0  0  0  0  0  0  0
    9.6262   -0.6126   -1.2036 H   0  0  0  0  0  0  0  0  0  0  0  0
   10.5967    1.9505   -2.6038 H   0  0  0  0  0  0  0  0  0  0  0  0
   11.6962    1.0119   -1.6137 H   0  0  0  0  0  0  0  0  0  0  0  0
    9.7167    0.4851    0.7013 H   0  0  0  0  0  0  0  0  0  0  0  0
    9.8776    2.1091    1.3697 H   0  0  0  0  0  0  0  0  0  0  0  0
   11.8321    1.0772    2.1540 H   0  0  0  0  0  0  0  0  0  0  0  0
   12.4059    1.9691    0.7111 H   0  0  0  0  0  0  0  0  0  0  0  0
   13.8672   -1.0914   -0.1271 H   0  0  0  0  0  0  0  0  0  0  0  0
   14.1139    0.6228    0.1160 H   0  0  0  0  0  0  0  0  0  0  0  0
   13.6547   -1.4794    2.3111 H   0  0  0  0  0  0  0  0  0  0  0  0
   13.9411    0.2114    2.6590 H   0  0  0  0  0  0  0  0  0  0  0  0
   17.2918    0.0401    1.3586 H   0  0  0  0  0  0  0  0  0  0  0  0
   15.9049    1.1468    1.4163 H   0  0  0  0  0  0  0  0  0  0  0  0
   17.4075    1.5330    3.3901 H   0  0  0  0  0  0  0  0  0  0  0  0
   15.8625    0.8549    3.9599 H   0  0  0  0  0  0  0  0  0  0  0  0
   16.9777   -1.2459    3.6821 H   0  0  0  0  0  0  0  0  0  0  0  0
  -13.0326    1.6907    1.3248 H   0  0  0  0  0  0  0  0  0  0  0  0
  1 48  1  0  0  0  0
  1  2  1  0  0  0  0
  2  3  1  0  0  0  0
  2 51  1  0  0  0  0
  3  4  1  0  0  0  0
  4  5  1  0  0  0  0
  5 56  1  0  0  0  0
  5 54  1  0  0  0  0
  5 55  1  0  0  0  0
  6  3  1  0  0  0  0
  6 46  1  0  0  0  0
  7  6  2  0  0  0  0
  8  7  1  0  0  0  0
  8  9  2  0  0  0  0
  9 45  1  0  0  0  0
 10  9  1  0  0  0  0
 10 11  2  0  0  0  0
 11 42  1  0  0  0  0
 12 11  1  0  0  0  0
 12 14  1  0  0  0  0
 13 12  2  0  0  0  0
 15 16  1  0  0  0  0
 15 14  1  0  0  0  0
 15 60  1  0  0  0  0
 16 63  1  0  0  0  0
 17 16  1  0  0  0  0
 18 17  1  0  0  0  0
 19 18  1  0  0  0  0
 19 20  1  0  0  0  0
 19 66  1  0  0  0  0
 20 21  1  0  0  0  0
 21 68  1  0  0  0  0
 21 69  1  0  0  0  0
 22 23  1  0  0  0  0
 22 21  1  0  0  0  0
 24 23  1  0  0  0  0
 24 73  1  0  0  0  0
 24 25  1  0  0  0  0
 25 75  1  0  0  0  0
 26 25  1  0  0  0  0
 27 77  1  0  0  0  0
 27 26  1  0  0  0  0
 28 27  1  0  0  0  0
 28 79  1  0  0  0  0
 29 30  1  0  0  0  0
 29 28  1  0  0  0  0
 30 31  1  0  0  0  0
 30 81  1  0  0  0  0
 31 83  1  0  0  0  0
 31 32  1  0  0  0  0
 32 33  1  0  0  0  0
 33 84  1  0  0  0  0
 33 34  1  0  0  0  0
 33 85  1  0  0  0  0
 34 86  1  0  0  0  0
 35 36  1  0  0  0  0
 35 34  1  0  0  0  0
 36 37  1  0  0  0  0
 37 90  1  0  0  0  0
 37 91  1  0  0  0  0
 38 39  1  0  0  0  0
 38 37  1  0  0  0  0
 39 40  1  0  0  0  0
 40 94  1  0  0  0  0
 40 95  1  0  0  0  0
 40 41  1  0  0  0  0
 42 44  1  0  0  0  0
 42 43  2  0  0  0  0
 45 46  2  0  0  0  0
 45 44  1  0  0  0  0
 46 97  1  0  0  0  0
 47  1  1  0  0  0  0
 49  1  1  0  0  0  0
 50  2  1  0  0  0  0
 52  4  1  0  0  0  0
 53  4  1  0  0  0  0
 57  7  1  0  0  0  0
 58  8  1  0  0  0  0
 59 10  1  0  0  0  0
 61 15  1  0  0  0  0
 62 16  1  0  0  0  0
 64 18  1  0  0  0  0
 65 18  1  0  0  0  0
 67 19  1  0  0  0  0
 70 22  1  0  0  0  0
 71 22  1  0  0  0  0
 72 24  1  0  0  0  0
 74 25  1  0  0  0  0
 76 27  1  0  0  0  0
 78 28  1  0  0  0  0
 80 30  1  0  0  0  0
 82 31  1  0  0  0  0
 87 34  1  0  0  0  0
 88 36  1  0  0  0  0
 89 36  1  0  0  0  0
 92 39  1  0  0  0  0
 93 39  1  0  0  0  0
 96 41  1  0  0  0  0
M  END
>  <charge>
0

>  <multiplicity>
1

>  <smiles>
CCN(CC)c1ccc2cc(C(=O)OCCOCCOCCOCCOCCOCCOCCOCCOCCO)c(=O)oc2c1

>  <generated_by>
Rowan

>  <timestamp>
2026-06-27 23:28:00

$$$$
